15

C          1.03990        0.67880       -0.00000
C         -0.40700        1.02800        0.00000
C          1.36640       -0.62040       -0.00000
N          0.41160       -1.59730        0.00000
C         -0.93200       -1.34380       -0.00000
N         -1.28080       -0.02450       -0.00000
O         -0.79830        2.19020        0.00000
C          2.05430        1.77490        0.00000
H          2.39810       -0.95920        0.00000
H          0.67350       -2.57670       -0.00000
O         -1.76310       -2.24520       -0.00000
H         -2.26470        0.19130        0.00000
H          1.59900        2.76960       -0.00000
H          2.69010        1.70670        0.88910
H          2.69010        1.70670       -0.88910
